*WARNING DETAIL FILE

******************************************************************************

*DSSAT Cropping System Model Ver. 4.8.5.000 -release  DEC 16, 2024 22:31:56

*RUN   1        : Maize rainfed                      GHMZ8001    1

 EXPERIMENT     : GHMZ8001 SN Ghana, maize template file
 DATA PATH      :
 TREATMENT  1   : Maize rainfed
  

 MAKEFW  YEAR DOY =    0   0
 Weather file not found.  Please check file name or create file.               
 File: GHCP.WTH                                                                
    Line:     0                                                                
    Error key: MAKEFW                                                          
 Simulations terminated.                                                       
