*Summary of files opened during simulation

Unit  File
Num.  Variable Name
*DSSAT Cropping System Model Ver. 4.8.5.000   -release    DEC 17, 2024; 23:58:30

 Unit  Filename
  501  OPCLR
   21  FILEIO
   25  DSPRO
  502  LUNMFW
  118  ERRORO
   15  ERRORX
  123  WARNING.OUT
